warn: Base 10 memory/cache size 512MB will be cast to base 2 size 512MiB.
warn: Base 10 memory/cache size 64kB will be cast to base 2 size 64KiB.
warn: Base 10 memory/cache size 64kB will be cast to base 2 size 64KiB.
Global frequency set at 1000000000000 ticks per second
src/mem/dram_interface.cc:690: warn: DRAM device capacity (8192 Mbytes) does not match the address range assigned (512 Mbytes)
src/arch/generic/semihosting.cc:130: info: Semihosting: Shifting elapsed ticks by 8 bits.
src/arch/riscv/isa.cc:321: info: RVV enabled, VLEN = 512 bits, ELEN = 64 bits
src/base/statistics.hh:279: warn: One of the stats is a legacy stat. Legacy stat is a stat that does not belong to any statistics::Group. Legacy stat is deprecated.
system.remote_gdb: Listening for connections on port 7000
gem5 Simulator System.  https://www.gem5.org
gem5 is copyrighted software; use the --copyright option for details.

gem5 version 25.1.0.0
gem5 compiled Apr 16 2026 01:18:10
gem5 started Jun 26 2026 10:44:50
gem5 executing on vmserver, pid 417569
command line: gem5.opt -d /home/ajno5/work/2_pattern/dgemm/test/fmadd_m5out /home/ajno5/work/2_pattern/dgemm/sim_config/gem5_riscv_demo_riscv_baremetal_semihost.py /home/ajno5/work/2_pattern/dgemm/test/fmadd_riscv

Starting bare-metal RISC-V M-mode simulation...
misa = 0x800000000034112D
Starting FMADD micro-benchmark...

vl = 8
ITERS = 10000

result[0] = 10000.0

counter: mcycle = 60016
counter: minstret = 30004
hpmcounter[3]: Vector = 60016
Exit @ tick 135325000: semi:ADP_Stopped_ApplicationExit
