warn: Base 10 memory/cache size 512MB will be cast to base 2 size 512MiB.
warn: Base 10 memory/cache size 64kB will be cast to base 2 size 64KiB.
warn: Base 10 memory/cache size 64kB will be cast to base 2 size 64KiB.
Global frequency set at 1000000000000 ticks per second
src/mem/dram_interface.cc:690: warn: DRAM device capacity (8192 Mbytes) does not match the address range assigned (512 Mbytes)
src/arch/generic/semihosting.cc:130: info: Semihosting: Shifting elapsed ticks by 8 bits.
src/arch/riscv/isa.cc:321: info: RVV enabled, VLEN = 512 bits, ELEN = 64 bits
src/base/statistics.hh:279: warn: One of the stats is a legacy stat. Legacy stat is a stat that does not belong to any statistics::Group. Legacy stat is deprecated.
src/base/statistics.hh:279: warn: One of the stats is a legacy stat. Legacy stat is a stat that does not belong to any statistics::Group. Legacy stat is deprecated.
src/cpu/minor/execute.cc:164: warn: No functional unit for OpClass SimdUnitStrideSegmentedLoad
src/cpu/minor/execute.cc:164: warn: No functional unit for OpClass SimdUnitStrideSegmentedStore
src/cpu/minor/execute.cc:164: warn: No functional unit for OpClass SimdUnitStrideSegmentedFaultOnlyFirstLoad
src/cpu/minor/execute.cc:164: warn: No functional unit for OpClass SimdStrideSegmentedLoad
src/cpu/minor/execute.cc:164: warn: No functional unit for OpClass SimdStrideSegmentedStore
src/base/remote_gdb.cc:418: warn: Sockets disabled, not accepting gdb connections
gem5 Simulator System.  https://www.gem5.org
gem5 is copyrighted software; use the --copyright option for details.

gem5 version 25.1.0.0
gem5 compiled Apr 16 2026 01:18:10
gem5 started Jul  8 2026 02:10:52
gem5 executing on vmserver, pid 551022
command line: gem5.opt -d /home/ajno5/work/2_pattern/gemm/test/m5out /home/ajno5/work/2_pattern/gemm/sim_config/gem5_riscv_demo_riscv_baremetal_semihost_minor.py /home/ajno5/work/2_pattern/gemm/test/gemm_riscv

info: Standard input is not a terminal, disabling listeners.
Starting bare-metal RISC-V M-mode simulation (MinorCPU)...
misa = 0x800000000034112D
Starting Scalar GEMM...

vl = 0x00000008
counter: mcycle = 9547
counter: minstret = 8797
hpmcounter[3]: Vector = 49446
hpmcounter[4]: VectorLoad = 49457
hpmcounter[5]: VectorStore = 49465
Exit @ tick 65007000: semi:ADP_Stopped_ApplicationExit
