warn: Base 10 memory/cache size 512MB will be cast to base 2 size 512MiB.
warn: Base 10 memory/cache size 64kB will be cast to base 2 size 64KiB.
warn: Base 10 memory/cache size 64kB will be cast to base 2 size 64KiB.
Global frequency set at 1000000000000 ticks per second
src/mem/dram_interface.cc:690: warn: DRAM device capacity (8192 Mbytes) does not match the address range assigned (512 Mbytes)
src/arch/generic/semihosting.cc:130: info: Semihosting: Shifting elapsed ticks by 8 bits.
src/arch/riscv/isa.cc:321: info: RVV enabled, VLEN = 512 bits, ELEN = 64 bits
src/base/statistics.hh:279: warn: One of the stats is a legacy stat. Legacy stat is a stat that does not belong to any statistics::Group. Legacy stat is deprecated.
src/base/remote_gdb.cc:418: warn: Sockets disabled, not accepting gdb connections
gem5 Simulator System.  https://www.gem5.org
gem5 is copyrighted software; use the --copyright option for details.

gem5 version 25.1.0.0
gem5 compiled Apr 16 2026 01:18:10
gem5 started Jul  3 2026 15:29:34
gem5 executing on vmserver, pid 492390
command line: gem5.opt -d /home/ajno5/work/2_pattern/dgemm/test/shape_MK16_N32_w32_il2_m5out /home/ajno5/work/2_pattern/dgemm/sim_config/gem5_riscv_demo_riscv_baremetal_semihost.py /home/ajno5/work/2_pattern/dgemm/test/gemm_riscv

info: Standard input is not a terminal, disabling listeners.
Starting bare-metal RISC-V M-mode simulation...
misa = 0x800000000034112D
Starting Scalar GEMM...

vl = 0x00000008
counter: mcycle = 367427
counter: minstret = 90860
hpmcounter[3]: Vector = 417167
hpmcounter[4]: VectorLoad = 417179
hpmcounter[5]: VectorStore = 417185
Exit @ tick 449406000: semi:ADP_Stopped_ApplicationExit
